/*--------------------------------*- C++ -*----------------------------------*\
| =========                 |                                                 |
| \\      /  F ield         | OpenFOAM: The Open Source CFD Toolbox           |
|  \\    /   O peration     | Version:  dev                                   |
|   \\  /    A nd           | Web:      www.OpenFOAM.org                      |
|    \\/     M anipulation  |                                                 |
\*---------------------------------------------------------------------------*/
FoamFile
{
    version     2.0;
    format      ascii;
    class       polyBoundaryMesh;
    location    "constant/polyMesh";
    object      boundary;
}
// * * * * * * * * * * * * * * * * * * * * * * * * * * * * * * * * * * * * * //

3
(
    frontAndback
    {
        type            empty;
        physicalType    empty;
        nFaces          12436;
        startFace       9267;
    }
    outlet
    {
        type            patch;
        physicalType    patch;
        nFaces          112;
        startFace       21703;
    }
    cylinderWalls
    {
        type            patch;
        physicalType    patch;
        nFaces          8;
        startFace       21815;
    }
)

// ************************************************************************* //
