/*--------------------------------*- C++ -*----------------------------------*\
  =========                 |
  \\      /  F ield         | OpenFOAM: The Open Source CFD Toolbox
   \\    /   O peration     | Website:  https://openfoam.org
    \\  /    A nd           | Version:  6
     \\/     M anipulation  |
\*---------------------------------------------------------------------------*/
FoamFile
{
    version     2.0;
    format      ascii;
    class       dictionary;
    location    "system";
    object      controlDict;
}
// * * * * * * * * * * * * * * * * * * * * * * * * * * * * * * * * * * * * * //

application     XiXIFoam;

startFrom       startTime;

startTime       0;

stopAt          endTime;

endTime         10;

deltaT          1e-6;

writeControl    adjustableRunTime;

writeInterval   0.01;

purgeWrite      0;

writeFormat     ascii;

writePrecision  6;

writeCompression off;

timeFormat      general;

timePrecision   6;

runTimeModifiable true;

adjustTimeStep  yes;

maxCo           0.4;

functions{
	fieldMinMax1
	{
		type 		fieldMinMax;
		libs        ("libfieldFunctionObjects.so");
		write       yes;
        log         yes;
        location    yes;
        mode        magnitude;
        fields
        (
            Qdot
            T
        );
	
	}
}

functions{
	fieldMinMax1
	{
		type 		fieldMinMax;
		libs        ("libfieldFunctionObjects.so");
		write       yes;
        log         yes;
        location    yes;
        mode        magnitude;
        fields
        (
            T
        );
	
	}
}
// ************************************************************************* //
